examples/test_perturbation_outputs/pert_min_cost/pglib_opf_case30_ieee.m
%% MATPOWER Case Format : Version 2
function mpc = pglib_opf_case30_ieee
mpc.version = '2';

%%-----  Power Flow Data  -----%%
%% system MVA base
mpc.baseMVA = 100.0;
%% bus data
%    bus_i    type    Pd    Qd    Gs    Bs    area    Vm    Va    baseKV    zone    Vmax    Vmin
mpc.bus = [
	1	3	0.0	0.0	0.0	0.0	1	1.0	0.0	132.0	1	1.06	0.94				
	2	2	21.7	12.7	0.0	0.0	1	1.0	0.0	132.0	1	1.06	0.94				
	3	1	2.4	1.2	0.0	0.0	1	1.0	0.0	132.0	1	1.06	0.94				
	4	1	7.6	1.6	0.0	0.0	1	1.0	0.0	132.0	1	1.06	0.94				
	5	2	94.2	19.0	0.0	0.0	1	1.0	0.0	132.0	1	1.06	0.94				
	6	1	0.0	0.0	0.0	0.0	1	1.0	0.0	132.0	1	1.06	0.94				
	7	1	22.8	10.9	0.0	0.0	1	1.0	0.0	132.0	1	1.06	0.94				
	8	2	30.0	30.0	0.0	0.0	1	1.0	0.0	132.0	1	1.06	0.94				
	9	1	0.0	0.0	0.0	0.0	1	1.0	0.0	1.0	1	1.06	0.94				
	10	1	5.8	2.0	0.0	19.0	1	1.0	0.0	33.0	1	1.06	0.94				
	11	2	0.0	0.0	0.0	0.0	1	1.0	0.0	11.0	1	1.06	0.94				
	12	1	11.2	7.5	0.0	0.0	1	1.0	0.0	33.0	1	1.06	0.94				
	13	2	0.0	0.0	0.0	0.0	1	1.0	0.0	11.0	1	1.06	0.94				
	14	1	6.2	1.6	0.0	0.0	1	1.0	0.0	33.0	1	1.06	0.94				
	15	1	8.2	2.5	0.0	0.0	1	1.0	0.0	33.0	1	1.06	0.94				
	16	1	3.5000000000000004	1.8000000000000003	0.0	0.0	1	1.0	0.0	33.0	1	1.06	0.94				
	17	1	9.0	5.8	0.0	0.0	1	1.0	0.0	33.0	1	1.06	0.94				
	18	1	3.2	0.9000000000000001	0.0	0.0	1	1.0	0.0	33.0	1	1.06	0.94				
	19	1	9.5	3.4000000000000004	0.0	0.0	1	1.0	0.0	33.0	1	1.06	0.94				
	20	1	2.2	0.7	0.0	0.0	1	1.0	0.0	33.0	1	1.06	0.94				
	21	1	17.5	11.2	0.0	0.0	1	1.0	0.0	33.0	1	1.06	0.94				
	22	1	0.0	0.0	0.0	0.0	1	1.0	0.0	33.0	1	1.06	0.94				
	23	1	3.2	1.6	0.0	0.0	1	1.0	0.0	33.0	1	1.06	0.94				
	24	1	8.7	6.7	0.0	4.3	1	1.0	0.0	33.0	1	1.06	0.94				
	25	1	0.0	0.0	0.0	0.0	1	1.0	0.0	33.0	1	1.06	0.94				
	26	1	3.5000000000000004	2.3	0.0	0.0	1	1.0	0.0	33.0	1	1.06	0.94				
	27	1	0.0	0.0	0.0	0.0	1	1.0	0.0	33.0	1	1.06	0.94				
	28	1	0.0	0.0	0.0	0.0	1	1.0	0.0	132.0	1	1.06	0.94				
	29	1	2.4	0.9000000000000001	0.0	0.0	1	1.0	0.0	33.0	1	1.06	0.94				
	30	1	10.6	1.9	0.0	0.0	1	1.0	0.0	33.0	1	1.06	0.94				
];

%% generator data
%    bus    Pg    Qg    Qmax    Qmin    Vg    mBase    status    Pmax    Pmin    Pc1    Pc2    Qc1min    Qc1max    Qc2min    Qc2max    ramp_agc    ramp_10    ramp_30    ramp_q    apf
mpc.gen = [
	1	135.5	5.0	10.0	0.0	1.0	100.0	1	271.0	0.0															
	2	46.0	3.0	46.0	-40.0	1.0	100.0	1	92.0	0.0															
	5	0.0	0.0	40.0	-40.0	1.0	100.0	1	0.0	0.0															
	8	0.0	15.0	40.0	-10.0	1.0	100.0	1	0.0	0.0															
	11	0.0	9.0	24.0	-6.0	1.0	100.0	1	0.0	0.0															
	13	0.0	9.0	24.0	-6.0	1.0	100.0	1	0.0	0.0															
];

%% branch data
%    f_bus    t_bus    r    x    b    rateA    rateB    rateC    ratio    angle    status    angmin    angmax
mpc.branch = [
	1	2	0.019198375377458526	0.05749504982356454	-0.001310639471055529	138.0	138.0	138.0	0	0	1	-29.999999999999996	29.999999999999996								
	1	3	0.04701044414185631	0.17181311352481896	-0.0013105694224626653	152.0	152.0	152.0	0	0	1	-29.999999999999996	29.999999999999996								
	2	4	0.056623965763682955	0.17255249204238104	-0.001310552121139445	139.0	139.0	139.0	0	0	1	-29.999999999999996	29.999999999999996								
	3	4	0.01305196019102872	0.03747493779059353	-0.0013106554440579555	135.0	135.0	135.0	0	0	1	-29.999999999999996	29.999999999999996								
	2	5	0.04607280191465344	0.1935630166348932	-0.00131061578025726	144.0	144.0	144.0	0	0	1	-29.999999999999996	29.999999999999996								
	2	6	0.05856210416159035	0.17769960031764678	-0.0013105635191277382	139.0	139.0	139.0	0	0	1	-29.999999999999996	29.999999999999996								
	4	6	0.011896973468857135	0.04138946427000425	-0.0013109744290617348	148.0	148.0	148.0	0	0	1	-29.999999999999996	29.999999999999996								
	5	7	0.045898107563750117	0.1157432948781626	-0.001310559725489338	127.0	127.0	127.0	0	0	1	-29.999999999999996	29.999999999999996								
	6	7	0.02650423640642844	0.08139891361487823	-0.001345263096386464	140.0	140.0	140.0	0	0	1	-29.999999999999996	29.999999999999996								
	6	8	0.012024585978766909	0.04208605004950591	-0.001310618050320948	148.0	148.0	148.0	0	0	1	-29.999999999999996	29.999999999999996								
	6	9	0.0023140004040262284	0.2087663377724964	-0.03194690407379907	142.0	142.0	142.0	0.978	0.0	1	-29.999999999999996	29.999999999999996								
	6	10	0.017819771286397158	0.5790965513734679	-0.0013107723316393243	53.0	53.0	53.0	0.969	0.0	1	-29.999999999999996	29.999999999999996								
	9	11	0.0023235319001596822	0.20919580309024322	-0.0013106828809207017	142.0	142.0	142.0	1.0	0.0	1	-29.999999999999996	29.999999999999996								
	9	10	0.0006388854962607317	0.10970074676235143	-0.0013105776287050336	267.0	267.0	267.0	1.0	0.0	1	-29.999999999999996	29.999999999999996								
	4	12	0.0034469133432281605	0.25478911968153867	-0.017450040395582164	114.99999999999999	114.99999999999999	114.99999999999999	0.932	0.0	1	-29.999999999999996	29.999999999999996								
	12	13	0.0010300966063021566	0.13929404096938686	-0.0013106676058993573	210.0	210.0	210.0	1.0	0.0	1	-29.999999999999996	29.999999999999996								
	12	14	0.12291923906465878	0.2555241346707836	-0.0013105944761400345	28.999999999999996	28.999999999999996	28.999999999999996	0	0	1	-29.999999999999996	29.999999999999996								
	12	15	0.06761275841032535	0.13318276200408355	-0.0013106115229908752	28.999999999999996	28.999999999999996	28.999999999999996	0	0	1	-29.999999999999996	29.999999999999996								
	12	16	0.09035695947194299	0.18998851638656833	-0.001310568752317078	30.0	30.0	30.0	0	0	1	-29.999999999999996	29.999999999999996								
	14	15	0.2235384671068796	0.20199380707895662	-0.0013106448368451569	20.0	20.0	20.0	0	0	1	-29.999999999999996	29.999999999999996								
	16	17	0.0523060770678193	0.19195517152026165	-0.0013105715082655472	38.0	38.0	38.0	0	0	1	-29.999999999999996	29.999999999999996								
	15	18	0.10372572585150656	0.21122136501776628	-0.001310553924382519	28.999999999999996	28.999999999999996	28.999999999999996	0	0	1	-29.999999999999996	29.999999999999996								
	18	19	0.06393999706141351	0.12928085516376994	-0.0013105548698484934	28.999999999999996	28.999999999999996	28.999999999999996	0	0	1	-29.999999999999996	29.999999999999996								
	19	20	0.03396598954922875	0.06793198228578941	-0.0013106211510694307	28.999999999999996	28.999999999999996	28.999999999999996	0	0	1	-29.999999999999996	29.999999999999996								
	10	20	0.09270603039637718	0.20700408121138128	-0.027973567219412705	30.0	30.0	30.0	0	0	1	-29.999999999999996	29.999999999999996								
	10	17	0.032214174749827094	0.08401537377082897	-0.0013105755508404425	33.0	33.0	33.0	0	0	1	-29.999999999999996	29.999999999999996								
	10	21	0.03484112238599511	0.07498851157328744	-0.12398539904209402	30.0	30.0	30.0	0	0	1	-29.999999999999996	29.999999999999996								
	10	22	0.07488316700650854	0.15440149984911916	-0.0013106105775132746	28.999999999999996	28.999999999999996	28.999999999999996	0	0	1	-29.999999999999996	29.999999999999996								
	21	22	0.011592534548333314	0.023584811614401045	-0.0013106437685853052	28.999999999999996	28.999999999999996	28.999999999999996	0	0	1	-29.999999999999996	29.999999999999996								
	15	23	0.09395220050919738	0.18978343671690223	-0.0013106172924139607	28.999999999999996	28.999999999999996	28.999999999999996	0	0	1	-29.999999999999996	29.999999999999996								
	22	24	0.11497097848861297	0.17895492578885713	-0.0013109499582050598	26.0	26.0	26.0	0	0	1	-29.999999999999996	29.999999999999996								
	23	24	0.1316965281931597	0.26937929644721276	-0.0013106299510851171	28.999999999999996	28.999999999999996	28.999999999999996	0	0	1	-29.999999999999996	29.999999999999996								
	24	25	0.17990787875434686	0.3141942186342637	-0.01830298681570066	27.0	27.0	27.0	0	0	1	-29.999999999999996	29.999999999999996								
	25	26	0.24778173043937088	0.3701139767010539	-0.0013105581014669222	25.0	25.0	25.0	0	0	1	-29.999999999999996	29.999999999999996								
	25	27	0.10861134541322111	0.20738488787460188	-0.05831856701287283	28.000000000000004	28.000000000000004	28.000000000000004	0	0	1	-29.999999999999996	29.999999999999996								
	28	27	0.0077468013184870625	0.3819243270021221	-0.0013105958128079801	75.0	75.0	75.0	0.968	0.0	1	-29.999999999999996	29.999999999999996								
	27	29	0.2275581443797198	0.4299623413706209	-0.0013105815175441047	28.000000000000004	28.000000000000004	28.000000000000004	0	0	1	-29.999999999999996	29.999999999999996								
	27	30	0.2975292643690235	0.5600561755530356	-0.0013107809893953724	28.000000000000004	28.000000000000004	28.000000000000004	0	0	1	-29.999999999999996	29.999999999999996								
	29	30	0.27883850825069484	0.5268826991561718	-0.0013105875990681935	28.000000000000004	28.000000000000004	28.000000000000004	0	0	1	-29.999999999999996	29.999999999999996								
	8	28	0.06391577758460086	0.2009929294519502	-0.07286910234489592	140.0	140.0	140.0	0	0	1	-29.999999999999996	29.999999999999996								
	6	28	0.016907150667644314	0.0599253466343136	-0.0013107355510885666	149.0	149.0	149.0	0	0	1	-29.999999999999996	29.999999999999996								
];

%%-----  OPF Data  -----%%
%% cost data
%    1    startup    shutdown    n    x1    y1    ...    xn    yn
%    2    startup    shutdown    n    c(n-1)    ...    c0
mpc.gencost = [
	2	0.0	0.0	2	18.421528	0.0
	2	0.0	0.0	2	52.182254	0.0
	2	0.0	0.0	2	0.0	0.0
	2	0.0	0.0	2	0.0	0.0
	2	0.0	0.0	2	0.0	0.0
	2	0.0	0.0	2	0.0	0.0
];

